test/test_files/validation_tests/case_illinois200_res.m
function mpc = case_illinois200_res
%CASE_ILLINOIS200_RES

%% MATPOWER Case Format : Version 2
mpc.version = '2';

%%-----  Power Flow Data  -----%%
%% system MVA base
mpc.baseMVA = 100;

%% bus data
%    bus_i    type    Pd    Qd    Gs    Bs    area    Vm    Va    baseKV    zone    Vmax    Vmin    lam_P    lam_Q    mu_Vmax    mu_Vmin
mpc.bus = [
    1    1    0    0    0    0    1    0.999294421    -36.4716557    115    1    1.1    0.9    19.9100    0.0000    0.0000    0.0000;
    2    1    10.95    3.12    0    0    1    0.999116334    -36.4914326    115    1    1.1    0.9    19.9100    0.0000    0.0000    0.0000;
    3    1    0    0    0    0    1    1.01228868    -38.1724871    115    1    1.1    0.9    19.9100    0.0000    0.0000    0.0000;
    4    1    2.72    0.77    0    0    1    1.01224816    -38.177264    115    1    1.1    0.9    19.9100    0.0000    0.0000    0.0000;
    5    1    0    0    0    0    1    1.02708716    -38.8158051    115    1    1.1    0.9    19.9100    0.0000    0.0000    0.0000;
    6    1    12.5    3.56    0    0    1    1.02688693    -38.8371229    115    1    1.1    0.9    19.9100    0.0000    0.0000    0.0000;
    7    1    0    0    0    0    1    0.990056902    -37.6263986    115    1    1.1    0.9    19.9100    0.0000    0.0000    0.0000;
    8    1    35.2    10.03    0    0    1    0.98950754    -37.6883304    115    1    1.1    0.9    19.9100    0.0000    0.0000    0.0000;
    9    1    0    0    0    0    1    0.994481305    -37.0099191    115    1    1.1    0.9    19.9100    0.0000    0.0000    0.0000;
    10    1    63.29    18.04    0    0    1    0.993385234    -37.1494133    115    1    1.1    0.9    19.9100    0.0000    0.0000    0.0000;
    11    1    0    0    0    0    1    1.03585716    -35.6175619    115    1    1.1    0.9    19.9100    0.0000    0.0000    0.0000;
    12    1    0.49    0.14    0    0    1    1.03584986    -35.6184463    115    1    1.1    0.9    19.9100    0.0000    0.0000    0.0000;
    13    1    4.04    1.15    0    0    1    1.03579297    -35.6249613    115    1    1.1    0.9    19.9100    0.0000    0.0000    0.0000;
    14    1    0    0    0    0    1    1.03425555    -34.3810921    230    1    1.1    0.9    19.9100    0.0000    0.0000    0.0000;
    15    1    0    0    0    30    1    1.03667989    -35.492939    115    1    1.1    0.9    19.9100    0.0000    0.0000    0.0000;
    16    1    71.7    20.44    0    0    1    1.03566334    -35.6093485    115    1    1.1    0.9    19.9100    0.0000    0.0000    0.0000;
    17    1    0    0    0    0    1    1.00312683    -39.144516    115    1    1.1    0.9    19.9100    0.0000    0.0000    0.0000;
    18    1    1.14    0.33    0    0    1    1.0031082    -39.14697    115    1    1.1    0.9    19.9100    0.0000    0.0000    0.0000;
    19    1    1.23    0.35    0    0    1    1.00310978    -39.14657    115    1    1.1    0.9    19.9100    0.0000    0.0000    0.0000;
    20    1    1.81    0.52    0    0    1    1.00309828    -39.1477728    115    1    1.1    0.9    19.9100    0.0000    0.0000    0.0000;
    21    1    7.38    2.1    0    0    1    1.00299868    -39.160333    115    1    1.1    0.9    19.9100    0.0000    0.0000    0.0000;
    22    1    0    0    0    0    1    1.03525338    -35.6376691    115    1    1.1    0.9    19.9100    0.0000    0.0000    0.0000;
    23    1    2.26    0.64    0    0    1    1.03522001    -35.6413512    115    1    1.1    0.9    19.9100    0.0000    0.0000    0.0000;
    24    1    3.84    1.09    0    0    1    1.0351956    -35.6435652    115    1    1.1    0.9    19.9100    0.0000    0.0000    0.0000;
    25    1    0    0    0    0    1    1.02881378    -39.0893273    115    1    1.1    0.9    19.9100    0.0000    0.0000    0.0000;
    26    1    2.13    0.61    0    0    1    1.02878294    -39.0926668    115    1    1.1    0.9    19.9100    0.0000    0.0000    0.0000;
    27    1    0    0    0    0    1    1.03591087    -35.7697567    115    1    1.1    0.9    19.9100    0.0000    0.0000    0.0000;
    28    1    3.74    1.07    0    0    1    1.03584872    -35.7773374    115    1    1.1    0.9    19.9100    0.0000    0.0000    0.0000;
    29    1    0    0    0    0    1    0.999368377    -36.2129705    115    1    1.1    0.9    19.9100    0.0000    0.0000    0.0000;
    30    1    87.62    24.97    0    0    1    0.997972341    -36.3606185    115    1    1.1    0.9    19.9100    0.0000    0.0000    0.0000;
    31    1    0    0    0    0    1    1.00083304    -39.546823    115    1    1.1    0.9    19.9100    0.0000    0.0000    0.0000;
    32    1    0.7    0.2    0    0    1    1.00082061    -39.5483018    115    1    1.1    0.9    19.9100    0.0000    0.0000    0.0000;
    33    1    8.82    2.51    0    0    1    1.00069518    -39.5644264    115    1    1.1    0.9    19.9100    0.0000    0.0000    0.0000;
    34    1    0    0    0    0    1    1.01911926    -36.9147583    115    1    1.1    0.9    19.9100    0.0000    0.0000    0.0000;
    35    1    33.26    9.48    0    0    1    1.01858892    -36.9791962    115    1    1.1    0.9    19.9100    0.0000    0.0000    0.0000;
    36    1    0    0    0    0    1    1.00773861    -39.6761425    115    1    1.1    0.9    19.9100    0.0000    0.0000    0.0000;
    37    1    4.89    1.39    0    0    1    1.0076659    -39.6848918    115    1    1.1    0.9    19.9100    0.0000    0.0000    0.0000;
    38    1    40.81    11.63    0    0    1    1.00706073    -39.7526373    115    1    1.1    0.9    19.9100    0.0000    0.0000    0.0000;
    39    1    11.86    3.38    0    0    1    1.00162782    -39.8962173    115    1    1.1    0.9    19.9100    0.0000    0.0000    0.0000;
    40    1    3.28    0.93    0    0    1    1.00158247    -39.9017619    115    1    1.1    0.9    19.9100    0.0000    0.0000    0.0000;
    41    1    61.87    17.63    0    0    1    1.0197389    -41.8080502    115    1    1.1    0.9    19.9100    0.0000    0.0000    0.0000;
    42    1    17.01    4.85    0    0    1    1.01132632    -38.6464048    115    1    1.1    0.9    19.9100    0.0000    0.0000    0.0000;
    43    1    3.09    0.88    0    0    1    0.995332772    -38.6125533    115    1    1.1    0.9    19.9100    0.0000    0.0000    0.0000;
    44    1    6.65    1.89    0    0    1    1.00844242    -38.4861589    115    1    1.1    0.9    19.9100    0.0000    0.0000    0.0000;
    45    1    0    0    0    0    1    1.02861997    -33.7495716    230    1    1.1    0.9    19.9100    0.0000    0.0000    0.0000;
    46    1    8.68    2.47    0    0    1    1.02618451    -34.6288266    115    1    1.1    0.9    19.9100    0.0000    0.0000    0.0000;
    47    1    2.47    0.71    0    0    1    1.03229135    -35.0023975    115    1    1.1    0.9    19.9100    0.0000    0.0000    0.0000;
    48    1    2.87    0.82    0    0    1    1.02528326    -39.1131224    115    1    1.1    0.9    19.9100    0.0000    0.0000    0.0000;
    49    2    0    0    0    0    1    1.04    -37.8573117    13.8    1    1.1    0.9    19.9100    0.0000    0.0000    0.0000;
    50    2    0    0    0    0    1    1.04    -38.1710551    13.8    1    1.1    0.9    19.9100    0.0000    0.0000    0.0000;
    51    2    0    0    0    0    1    1.04    -37.6558813    13.8    1    1.1    0.9    19.9100    0.0000    0.0000    0.0000;
    52    2    0    0    0    0    1    1.04    -38.2329555    13.8    1    1.1    0.9    19.9100    0.0000    0.0000    0.0000;
    53    2    0    0    0    0    1    1.04    -36.3310781    13.8    1    1.1    0.9    19.9100    0.0000    0.0000    0.0000;
    54    1    4.27    1.22    0    0    1    1.02870007    -35.5035529    115    1    1.1    0.9    19.9100    0.0000    0.0000    0.0000;
    55    1    0    0    0    0    1    1.02573749    -34.504178    230    1    1.1    0.9    19.9100    0.0000    0.0000    0.0000;
    56    1    1.79    0.51    0    0    1    1.02411284    -34.8778503    115    1    1.1    0.9    19.9100    0.0000    0.0000    0.0000;
    57    1    4.52    1.29    0    0    1    1.0080454    -38.9443935    115    1    1.1    0.9    19.9100    0.0000    0.0000    0.0000;
    58    1    5.79    1.65    0    0    1    1.01500721    -39.4557498    115    1    1.1    0.9    19.9100    0.0000    0.0000    0.0000;
    59    1    7.02    2    0    0    1    0.992966492    -39.2701658    115    1    1.1    0.9    19.9100    0.0000    0.0000    0.0000;
    60    1    5.63    1.6    0    0    1    1.01469769    -35.1763177    115    1    1.1    0.9    19.9100    0.0000    0.0000    0.0000;
    61    1    28.14    8.02    0    0    1    1.02229915    -35.1360619    115    1    1.1    0.9    19.9100    0.0000    0.0000    0.0000;
    62    1    34.29    9.77    0    0    1    1.00504658    -39.6130771    115    1    1.1    0.9    19.9100    0.0000    0.0000    0.0000;
    63    1    12.79    3.64    0    0    1    1.0291126    -37.0070105    115    1    1.1    0.9    19.9100    0.0000    0.0000    0.0000;
    64    1    0    0    0    0    1    1.03187417    -38.0839394    115    1    1.1    0.9    19.9100    0.0000    0.0000    0.0000;
    65    2    0    0    0    0    1    1.04    -34.7989861    13.8    1    1.1    0.9    19.9100    0.0000    0.0000    0.0000;
    66    1    0    0    0    0    1    1.03628898    -34.4231853    115    1    1.1    0.9    19.9100    0.0000    0.0000    0.0000;
    67    2    0    0    0    0    1    1.04    -34.0836738    13.8    1    1.1    0.9    19.9100    0.0000    0.0000    0.0000;
    68    2    0    0    0    0    1    1.04    -30.4929131    13.8    1    1.1    0.9    19.9100    0.0000    0.0000    0.0000;
    69    2    0    0    0    0    1    1.04    -33.0203856    13.8    1    1.1    0.9    19.9100    0.0000    0.0000    0.0000;
    70    2    0    0    0    0    1    1.04    -31.4676265    13.8    1    1.1    0.9    19.9100    0.0000    0.0000    0.0000;
    71    2    0    0    0    0    1    1.04    -33.2198914    13.8    1    1.1    0.9    19.9100    0.0000    0.0000    0.0000;
    72    2    0    0    0    0    1    1.04    -33.3235654    13.8    1    1.1    0.9    19.9100    0.0000    0.0000    0.0000;
    73    2    0    0    0    0    1    1.04    -32.2560722    13.8    1    1.1    0.9    19.9100    0.0000    0.0000    0.0000;
    74    1    29.51    8.41    0    0    1    1.01388405    -40.1553309    115    1    1.1    0.9    19.9100    0.0000    0.0000    0.0000;
    75    1    5.34    1.52    0    0    1    1.01590828    -34.7098105    115    1    1.1    0.9    19.9100    0.0000    0.0000    0.0000;
    76    2    0    0    0    0    1    1.04    -34.2648931    13.8    1    1.1    0.9    19.9100    0.0000    0.0000    0.0000;
    77    2    0    0    0    0    1    1.04    -33.9026042    13.8    1    1.1    0.9    19.9100    0.0000    0.0000    0.0000;
    78    2    0    0    0    0    1    1.01590828    -34.7098105    13.8    1    1.1    0.9    19.9100    0.0000    0.0000    0.0000;
    79    2    0    0    0    0    1    1.01590828    -34.7098105    13.8    1    1.1    0.9    19.9100    0.0000    0.0000    0.0000;
    80    1    2.38    0.68    0    0    1    1.02082714    -40.4903683    115    1    1.1    0.9    19.9100    0.0000    0.0000    0.0000;
    81    1    0    0    0    0    1    1.02165649    -36.3181143    230    1    1.1    0.9    19.9100    0.0000    0.0000    0.0000;
    82    1    11.96    3.41    0    0    1    1.01702668    -37.6055681    115    1    1.1    0.9    19.9100    0.0000    0.0000    0.0000;
    83    1    4.29    1.22    0    0    1    1.01380011    -38.2224457    115    1    1.1    0.9    19.9100    0.0000    0.0000    0.0000;
    84    1    5.56    1.59    0    0    1    0.998505022    -38.563029    115    1    1.1    0.9    19.9100    0.0000    0.0000    0.0000;
    85    1    7.74    2.21    0    0    1    1.00110112    -39.8582783    115    1    1.1    0.9    19.9100    0.0000    0.0000    0.0000;
    86    1    12.23    3.49    0    0    1    0.99201293    -37.3231733    115    1    1.1    0.9    19.9100    0.0000    0.0000    0.0000;
    87    1    0    0    0    0    1    1.02574308    -34.4320534    230    1    1.1    0.9    19.9100    0.0000    0.0000    0.0000;
    88    1    79.66    22.7    0    0    1    1.02040927    -36.5465204    115    1    1.1    0.9    19.9100    0.0000    0.0000    0.0000;
    89    1    86.04    24.52    0    0    1    1.01787177    -38.7207226    115    1    1.1    0.9    19.9100    0.0000    0.0000    0.0000;
    90    2    0    0    0    0    1    1.04    -37.5683189    13.8    1    1.1    0.9    19.9100    0.0000    0.0000    0.0000;
    91    2    0    0    0    0    1    1.04    -38.3719805    13.8    1    1.1    0.9    19.9100    0.0000    0.0000    0.0000;
    92    2    0    0    0    0    1    1.01787177    -38.7207226    13.8    1    1.1    0.9    19.9100    0.0000    0.0000    0.0000;
    93    1    4.91    1.4    0    0    1    1.03508098    -36.4534358    115    1    1.1    0.9    19.9100    0.0000    0.0000    0.0000;
    94    2    0    0    0    0    1    1.04    -33.7730102    13.8    1    1.1    0.9    19.9100    0.0000    0.0000    0.0000;
    95    1    4.11    1.17    0    30    1    1.02551668    -39.2137128    115    1    1.1    0.9    19.9100    0.0000    0.0000    0.0000;
    96    1    4.05    1.15    0    0    1    1.0231211    -36.5310732    115    1    1.1    0.9    19.9100    0.0000    0.0000    0.0000;
    97    1    10.87    3.1    0    0    1    1.00908752    -36.7378048    115    1    1.1    0.9    19.9100    0.0000    0.0000    0.0000;
    98    1    0    0    0    0    1    1.01176758    -33.8020706    230    1    1.1    0.9    19.9100    0.0000    0.0000    0.0000;
    99    1    18.04    5.14    0    0    1    1.00469218    -35.2396299    115    1    1.1    0.9    19.9100    0.0000    0.0000    0.0000;
    100    1    60.35    17.2    0    80    1    1.02885341    -41.2262996    115    1    1.1    0.9    19.9100    0.0000    0.0000    0.0000;
    101    1    0.77    0.22    0    0    1    0.993542723    -37.2129645    115    1    1.1    0.9    19.9100    0.0000    0.0000    0.0000;
    102    1    0    0    0    0    1    1.0273004    -34.1930048    230    1    1.1    0.9    19.9100    0.0000    0.0000    0.0000;
    103    1    0    0    0    0    1    1.02371371    -34.9370486    115    1    1.1    0.9    19.9100    0.0000    0.0000    0.0000;
    104    2    0    0    0    0    1    1.04    -31.7620399    13.8    1    1.1    0.9    19.9100    0.0000    0.0000    0.0000;
    105    2    0    0    0    0    1    1.04    -32.1966864    13.8    1    1.1    0.9    19.9100    0.0000    0.0000    0.0000;
    106    1    2.82    0.8    0    0    1    1.01919139    -35.5260389    115    1    1.1    0.9    19.9100    0.0000    0.0000    0.0000;
    107    1    71.96    20.51    0    0    1    0.99497142    -39.3870514    115    1    1.1    0.9    19.9100    0.0000    0.0000    0.0000;
    108    1    13.97    3.98    0    0    1    1.0106827    -35.4898172    115    1    1.1    0.9    19.9100    0.0000    0.0000    0.0000;
    109    1    8.26    2.35    0    0    1    1.00702455    -38.2613854    115    1    1.1    0.9    19.9100    0.0000    0.0000    0.0000;
    110    1    16.1    4.59    0    0    1    0.993680054    -37.1730332    115    1    1.1    0.9    19.9100    0.0000    0.0000    0.0000;
    111    1    14.23    4.05    0    0    1    1.01548841    -42.0451105    115    1    1.1    0.9    19.9100    0.0000    0.0000    0.0000;
    112    1    0    0    0    0    1    1.0220852    -34.875991    230    1    1.1    0.9    19.9100    0.0000    0.0000    0.0000;
    113    1    0    0    0    0    1    1.00204132    -38.3777053    115    1    1.1    0.9    19.9100    0.0000    0.0000    0.0000;
    114    2    0    0    0    0    1    1.04    -34.7573578    13.8    1    1.1    0.9    19.9100    0.0000    0.0000    0.0000;
    115    2    0    0    0    0    1    1.04    -32.3540737    13.8    1    1.1    0.9    19.9100    0.0000    0.0000    0.0000;
    116    1    0    0    0    0    1    1.01090222    -34.1582511    230    1    1.1    0.9    19.9100    0.0000    0.0000    0.0000;
    117    1    50.54    14.4    0    0    1    0.99977188    -36.6311311    115    1    1.1    0.9    19.9100    0.0000    0.0000    0.0000;
    118    1    5.84    1.66    0    0    1    1.0040562    -35.9598661    115    1    1.1    0.9    19.9100    0.0000    0.0000    0.0000;
    119    1    26.03    7.42    0    0    1    0.990609354    -38.8715386    115    1    1.1    0.9    19.9100    0.0000    0.0000    0.0000;
    120    1    2.88    0.82    0    0    1    1.00190051    -39.6096141    115    1    1.1    0.9    19.9100    0.0000    0.0000    0.0000;
    121    1    0    0    0    0    1    1.03334239    -32.7729675    230    1    1.1    0.9    19.9100    0.0000    0.0000    0.0000;
    122    1    21.14    6.02    0    0    1    1.02743129    -34.80046    115    1    1.1    0.9    19.9100    0.0000    0.0000    0.0000;
    123    1    0    0    0    0    1    1.0225329    -32.2901549    230    1    1.1    0.9    19.9100    0.0000    0.0000    0.0000;
    124    1    0    0    0    0    1    1.00876114    -34.9739094    115    1    1.1    0.9    19.9100    0.0000    0.0000    0.0000;
    125    2    0    0    0    0    1    1.04    -24.9923147    13.8    1    1.1    0.9    19.9100    0.0000    0.0000    0.0000;
    126    2    0    0    0    0    1    1.04    -27.6814184    13.8    1    1.1    0.9    19.9100    0.0000    0.0000    0.0000;
    127    2    0    0    0    0    1    1.04    -30.099077    13.8    1    1.1    0.9    19.9100    0.0000    0.0000    0.0000;
    128    1    0    0    0    0    1    1.02141448    -34.8308645    230    1    1.1    0.9    19.9100    0.0000    0.0000    0.0000;
    129    1    105.76    30.14    0    0    1    1.00055539    -38.5341461    115    1    1.1    0.9    19.9100    0.0000    0.0000    0.0000;
    130    1    6.02    1.72    0    0    1    1.01539784    -35.9760752    115    1    1.1    0.9    19.9100    0.0000    0.0000    0.0000;
    131    1    44.86    12.79    0    0    1    0.994669554    -37.0444033    115    1    1.1    0.9    19.9100    0.0000    0.0000    0.0000;
    132    1    39.98    11.39    0    0    1    0.990864369    -38.5492628    115    1    1.1    0.9    19.9100    0.0000    0.0000    0.0000;
    133    1    0    0    0    0    1    1.0246355    -32.2973735    230    1    1.1    0.9    19.9100    0.0000    0.0000    0.0000;
    134    1    0    0    0    0    1    1.02018021    -33.7589341    115    1    1.1    0.9    19.9100    0.0000    0.0000    0.0000;
    135    2    0    0    0    0    1    1.04    -28.4005659    13.8    1    1.1    0.9    19.9100    0.0000    0.0000    0.0000;
    136    2    0    0    0    0    1    1.04    -29.4080677    13.8    1    1.1    0.9    19.9100    0.0000    0.0000    0.0000;
    137    1    1.86    0.53    0    0    1    1.01536943    -37.6134864    115    1    1.1    0.9    19.9100    0.0000    0.0000    0.0000;
    138    1    3.29    0.94    0    0    1    1.00993204    -38.5702163    115    1    1.1    0.9    19.9100    0.0000    0.0000    0.0000;
    139    1    10.14    2.89    0    0    1    0.996164468    -39.3622297    115    1    1.1    0.9    19.9100    0.0000    0.0000    0.0000;
    140    1    12.18    3.47    0    0    1    1.00687737    -35.3392107    115    1    1.1    0.9    19.9100    0.0000    0.0000    0.0000;
    141    1    2.11    0.6    0    0    1    0.993616341    -37.1691384    115    1    1.1    0.9    19.9100    0.0000    0.0000    0.0000;
    142    1    55.26    15.75    0    0    1    0.991950214    -37.1801754    115    1    1.1    0.9    19.9100    0.0000    0.0000    0.0000;
    143    1    43.22    12.32    0    0    1    1.01126907    -39.5616758    115    1    1.1    0.9    19.9100    0.0000    0.0000    0.0000;
    144    1    13.43    3.83    0    0    1    1.00447452    -36.9532725    115    1    1.1    0.9    19.9100    0.0000    0.0000    0.0000;
    145    1    28.32    8.07    0    0    1    1.01186128    -37.6865435    115    1    1.1    0.9    19.9100    0.0000    0.0000    0.0000;
    146    1    0    0    0    0    1    1.01864748    -38.0095193    115    1    1.1    0.9    19.9100    0.0000    0.0000    0.0000;
    147    2    0    0    0    0    1    1.04    -35.7255048    13.8    1    1.1    0.9    19.9100    0.0000    0.0000    0.0000;
    148    1    47.49    13.53    0    0    1    0.985522905    -38.2240094    115    1    1.1    0.9    19.9100    0.0000    0.0000    0.0000;
    149    1    0    0    0    0    1    1.02921583    -33.7323697    230    1    1.1    0.9    19.9100    0.0000    0.0000    0.0000;
    150    1    0    0    0    0    1    1.025743    -35.7399818    115    1    1.1    0.9    19.9100    0.0000    0.0000    0.0000;
    151    2    0    0    0    0    1    1.04    -31.9443898    13.8    1    1.1    0.9    19.9100    0.0000    0.0000    0.0000;
    152    2    0    0    0    0    1    1.04    -27.8796265    13.8    1    1.1    0.9    19.9100    0.0000    0.0000    0.0000;
    153    2    0    0    0    0    1    1.04    -26.105574    13.8    1    1.1    0.9    19.9100    0.0000    0.0000    0.0000;
    154    2    0    0    0    0    1    1.04    -29.4893504    13.8    1    1.1    0.9    19.9100    0.0000    0.0000    0.0000;
    155    2    0    0    0    0    1    1.04    -29.6182948    13.8    1    1.1    0.9    19.9100    0.0000    0.0000    0.0000;
    156    1    0    0    0    0    1    1.02272885    -32.4181864    230    1    1.1    0.9    19.9100    0.0000    0.0000    0.0000;
    157    1    21.88    6.24    0    0    1    1.01951192    -33.5643737    115    1    1.1    0.9    19.9100    0.0000    0.0000    0.0000;
    158    1    14.36    4.09    0    0    1    1.03539451    -35.2005455    115    1    1.1    0.9    19.9100    0.0000    0.0000    0.0000;
    159    1    2.22    0.63    0    0    1    1.00493486    -39.5020177    115    1    1.1    0.9    19.9100    0.0000    0.0000    0.0000;
    160    1    0    0    0    0    1    1.01254433    -38.7242107    115    1    1.1    0.9    19.9100    0.0000    0.0000    0.0000;
    161    2    0    0    0    0    1    1.01254433    -38.7242107    13.8    1    1.1    0.9    19.9100    0.0000    0.0000    0.0000;
    162    1    2.15    0.61    0    0    1    1.00312469    -36.8949496    115    1    1.1    0.9    19.9100    0.0000    0.0000    0.0000;
    163    1    73.93    21.07    0    0    1    1.01779011    -41.8293491    115    1    1.1    0.9    19.9100    0.0000    0.0000    0.0000;
    164    2    0    0    0    0    1    1.01779011    -41.8293491    13.8    1    1.1    0.9    19.9100    0.0000    0.0000    0.0000;
    165    2    0    0    0    0    1    1.01779011    -41.8293491    13.8    1    1.1    0.9    19.9100    0.0000    0.0000    0.0000;
    166    2    0    0    0    0    1    1.01779011    -41.8293491    13.8    1    1.1    0.9    19.9100    0.0000    0.0000    0.0000;
    167    2    0    0    0    0    1    1.04    -41.5952342    13.8    1    1.1    0.9    19.9100    0.0000    0.0000    0.0000;
    168    2    0    0    0    0    1    1.01779011    -41.8293491    13.8    1    1.1    0.9    19.9100    0.0000    0.0000    0.0000;
    169    2    0    0    0    0    1    1.01779011    -41.8293491    13.8    1    1.1    0.9    19.9100    0.0000    0.0000    0.0000;
    170    2    0    0    0    0    1    1.04    -41.3106746    13.8    1    1.1    0.9    19.9100    0.0000    0.0000    0.0000;
    171    1    12.49    3.56    0    0    1    1.00921198    -39.6460208    115    1    1.1    0.9    19.9100    0.0000    0.0000    0.0000;
    172    1    8.68    2.47    0    0    1    1.02263055    -40.966932    115    1    1.1    0.9    19.9100    0.0000    0.0000    0.0000;
    173    1    14.06    4.01    0    0    1    1.01628006    -41.5512957    115    1    1.1    0.9    19.9100    0.0000    0.0000    0.0000;
    174    1    4.47    1.27    0    0    1    1.02402747    -40.0517385    115    1    1.1    0.9    19.9100    0.0000    0.0000    0.0000;
    175    1    11.8    3.36    0    0    1    1.01472391    -41.9743418    115    1    1.1    0.9    19.9100    0.0000    0.0000    0.0000;
    176    1    30.69    8.75    0    0    1    1.01561773    -37.1659341    115    1    1.1    0.9    19.9100    0.0000    0.0000    0.0000;
    177    1    15.45    4.4    0    0    1    1.00897178    -39.2358194    115    1    1.1    0.9    19.9100    0.0000    0.0000    0.0000;
    178    1    0    0    0    0    1    1.02208674    -37.0920509    230    1    1.1    0.9    19.9100    0.0000    0.0000    0.0000;
    179    1    38.1    10.86    0    0    1    1.02233908    -40.1399947    115    1    1.1    0.9    19.9100    0.0000    0.0000    0.0000;
    180    1    12.5    3.56    0    0    1    1.02235166    -40.9690083    115    1    1.1    0.9    19.9100    0.0000    0.0000    0.0000;
    181    1    76.87    21.91    0    0    1    1.01661044    -38.2377866    115    1    1.1    0.9    19.9100    0.0000    0.0000    0.0000;
    182    2    0    0    0    0    1    1.04    -35.4602919    13.8    1    1.1    0.9    19.9100    0.0000    0.0000    0.0000;
    183    2    0    0    0    0    1    1.04    -36.6421859    13.8    1    1.1    0.9    19.9100    0.0000    0.0000    0.0000;
    184    1    17.26    4.92    0    0    1    1.02531703    -39.8585111    115    1    1.1    0.9    19.9100    0.0000    0.0000    0.0000;
    185    1    17.42    4.96    0    0    1    1.01546091    -37.1904312    115    1    1.1    0.9    19.9100    0.0000    0.0000    0.0000;
    186    1    3.12    0.89    0    0    1    1.01223553    -37.2203239    115    1    1.1    0.9    19.9100    0.0000    0.0000    0.0000;
    187    1    0    0    0    0    1    1.0355943    -31.7773001    230    1    1.1    0.9    19.9100    0.0000    0.0000    0.0000;
    188    1    0    0    0    0    1    1.02790333    -35.9660631    115    1    1.1    0.9    19.9100    0.0000    0.0000    0.0000;
    189    3    0    0    0    0    1    1.04    -29.418352    13.8    1    1.1    0.9    19.9100    0.0000    0.0000    0.0000;
    190    1    26.41    7.53    0    0    1    1.00836703    -40.3715757    115    1    1.1    0.9    19.9100    0.0000    0.0000    0.0000;
    191    1    11.67    3.32    0    0    1    1.02686559    -38.9189035    115    1    1.1    0.9    19.9100    0.0000    0.0000    0.0000;
    192    1    72.21    20.58    0    0    1    0.994893502    -39.5488189    115    1    1.1    0.9    19.9100    0.0000    0.0000    0.0000;
    193    1    32.61    9.29    0    0    1    0.995444732    -36.9040609    115    1    1.1    0.9    19.9100    0.0000    0.0000    0.0000;
    194    1    60.67    17.29    0    50    1    1.02353362    -37.0428889    115    1    1.1    0.9    19.9100    0.0000    0.0000    0.0000;
    195    1    0    0    0    0    1    1.01388497    -38.2253124    115    1    1.1    0.9    19.9100    0.0000    0.0000    0.0000;
    196    2    0    0    0    0    1    1.01388497    -38.2253124    13.8    1    1.1    0.9    19.9100    0.0000    0.0000    0.0000;
    197    2    0    0    0    0    1    1.01388497    -38.2253124    13.8    1    1.1    0.9    19.9100    0.0000    0.0000    0.0000;
    198    1    7.97    2.27    0    0    1    1.00531437    -36.0309574    115    1    1.1    0.9    19.9100    0.0000    0.0000    0.0000;
    199    1    6.69    1.91    0    0    1    1.02517902    -40.228824    115    1    1.1    0.9    19.9100    0.0000    0.0000    0.0000;
    200    1    14.97    4.27    0    0    1    1.00636914    -37.9173004    115    1    1.1    0.9    19.9100    0.0000    0.0000    0.0000;
];

%% generator data
%    bus    Pg    Qg    Qmax    Qmin    Vg    mBase    status    Pmax    Pmin    Pc1    Pc2    Qc1min    Qc1max    Qc2min    Qc2max    ramp_agc    ramp_10    ramp_30    ramp_q    apf    mu_Pmax    mu_Pmin    mu_Qmax    mu_Qmin
mpc.gen = [
    49    4.53    2.69381709    2.11    -0.55    1.04    5.44    1    4.53    1.36    0    0    0    0    0    0    0    0    0    0    0    0.0000    0.0000    0.0000    0.0000;
    50    4.53    3.5791315    2.11    -0.55    1.04    5.44    1    4.53    1.36    0    0    0    0    0    0    0    0    0    0    0    0.0000    0.0000    0.0000    0.0000;
    51    4.53    2.35354314    2.11    -0.55    1.04    5.44    1    4.53    1.36    0    0    0    0    0    0    0    0    0    0    0    0.0000    0.0000    0.0000    0.0000;
    52    4.53    3.80376609    2.11    -0.55    1.04    5.44    1    4.53    1.36    0    0    0    0    0    0    0    0    0    0    0    0.0000    0.0000    0.0000    0.0000;
    53    9.07    2.53896883    4.23    -1.11    1.04    10.88    1    9.07    2.72    0    0    0    0    0    0    0    0    0    0    0    0.0000    0.0000    0.0000    0.0000;
    65    60.66    9.29182367    32.04    -21.66    1.04    180.48    1    150.4    45.12    0    0    0    0    0    0    0    0    0    0    0    0.0000    0.0000    0.0000    0.0000;
    67    4.7    1.99859739    2.19    -0.57    1.04    5.64    1    4.7    1.41    0    0    0    0    0    0    0    0    0    0    0    0.0000    0.0000    0.0000    0.0000;
    68    27.92    1.68696373    13.01    -3.41    1.04    33.5    1    27.92    8.38    0    0    0    0    0    0    0    0    0    0    0    0.0000    0.0000    0.0000    0.0000;
    69    27.92    3.10685084    13.01    -3.41    1.04    33.5    1    27.92    8.38    0    0    0    0    0    0    0    0    0    0    0    0.0000    0.0000    0.0000    0.0000;
    70    27.92    1.68933254    13.01    -3.41    1.04    33.5    1    27.92    8.38    0    0    0    0    0    0    0    0    0    0    0    0.0000    0.0000    0.0000    0.0000;
    71    27.92    3.8164833    13.01    -3.41    1.04    33.5    1    27.92    8.38    0    0    0    0    0    0    0    0    0    0    0    0.0000    0.0000    0.0000    0.0000;
    72    27.92    4.11925734    13.01    -3.41    1.04    33.5    1    27.92    8.38    0    0    0    0    0    0    0    0    0    0    0    0.0000    0.0000    0.0000    0.0000;
    73    27.92    1.84847494    13.01    -3.41    1.04    33.5    1    27.92    8.38    0    0    0    0    0    0    0    0    0    0    0    0.0000    0.0000    0.0000    0.0000;
    76    1.2    3.13971611    2.04    -0.44    1.04    4.8    1    4    1.2    0    0    0    0    0    0    0    0    0    0    0    0.0000    0.0000    0.0000    0.0000;
    77    0.72    1.12144727    1.22    -0.27    1.04    2.88    1    2.4    0.72    0    0    0    0    0    0    0    0    0    0    0    0.0000    0.0000    0.0000    0.0000;
    78    0    0    9.16    -2    1.04    21.6    0    18    5.4    0    0    0    0    0    0    0    0    0    0    0    0.0000    0.0000    0.0000    0.0000;
    79    0    0    9.16    -2    1.04    21.6    0    18    5.4    0    0    0    0    0    0    0    0    0    0    0    0.0000    0.0000    0.0000    0.0000;
    90    0.96    0.993477553    1.63    -0.36    1.04    3.84    1    3.2    0.96    0    0    0    0    0    0    0    0    0    0    0    0.0000    0.0000    0.0000    0.0000;
    91    1.5    4.50192245    2.55    -0.55    1.04    6    1    5    1.5    0    0    0    0    0    0    0    0    0    0    0    0.0000    0.0000    0.0000    0.0000;
    92    0    0    3.21    -0.7    1.04    7.56    0    6.3    1.89    0    0    0    0    0    0    0    0    0    0    0    0.0000    0.0000    0.0000    0.0000;
    94    18    1.55777497    8.39    -2.2    1.04    21.6    1    18    5.4    0    0    0    0    0    0    0    0    0    0    0    0.0000    0.0000    0.0000    0.0000;
    104    52    14.9028208    21.09    -14.26    1.04    118.8    1    99    29.7    0    0    0    0    0    0    0    0    0    0    0    0.0000    0.0000    0.0000    0.0000;
    105    63    22.290718    42.17    -28.51    1.04    237.6    1    198    59.4    0    0    0    0    0    0    0    0    0    0    0    0.0000    0.0000    0.0000    0.0000;
    114    1.08    4.14403971    0.36    -0.24    1.04    2.04    1    1.7    0.51    0    0    0    0    0    0    0    0    0    0    0    0.0000    0.0000    0.0000    0.0000;
    115    75.12    29.7898411    31.95    -21.6    1.04    180    1    150    45    0    0    0    0    0    0    0    0    0    0    0    0.0000    0.0000    0.0000    0.0000;
    125    130.05    20.0399543    60.6    -15.87    1.04    156.06    1    130.05    39.02    0    0    0    0    0    0    0    0    0    0    0    0.0000    0.0000    0.0000    0.0000;
    126    130.05    29.7980262    60.6    -15.87    1.04    156.06    1    130.05    39.02    0    0    0    0    0    0    0    0    0    0    0    0.0000    0.0000    0.0000    0.0000;
    127    130.05    55.6712586    60.6    -15.87    1.04    156.06    1    130.05    39.02    0    0    0    0    0    0    0    0    0    0    0    0.0000    0.0000    0.0000    0.0000;
    135    216.77    52.2517809    208.02    -54.46    1.04    535.68    1    446.4    133.92    0    0    0    0    0    0    0    0    0    0    0    0.0000    0.0000    0.0000    0.0000;
    136    196.42    60.008418    208.02    -54.46    1.04    535.68    1    446.4    133.92    0    0    0    0    0    0    0    0    0    0    0    0.0000    0.0000    0.0000    0.0000;
    147    42    21.6071673    21.41    -14.47    1.04    120.6    1    100.5    30.15    0    0    0    0    0    0    0    0    0    0    0    0.0000    0.0000    0.0000    0.0000;
    151    5.4    1.68059806    2.52    -0.66    1.04    6.48    1    5.4    1.62    0    0    0    0    0    0    0    0    0    0    0    0.0000    0.0000    0.0000    0.0000;
    152    77.22    10.4966516    35.99    -9.42    1.04    92.67    1    77.22    23.17    0    0    0    0    0    0    0    0    0    0    0    0.0000    0.0000    0.0000    0.0000;
    153    77.22    8.90842906    35.99    -9.42    1.04    92.67    1    77.22    23.17    0    0    0    0    0    0    0    0    0    0    0    0.0000    0.0000    0.0000    0.0000;
    154    77.22    11.8772665    35.99    -9.42    1.04    92.67    1    77.22    23.17    0    0    0    0    0    0    0    0    0    0    0    0.0000    0.0000    0.0000    0.0000;
    155    77.22    12.0708508    35.99    -9.42    1.04    92.67    1    77.22    23.17    0    0    0    0    0    0    0    0    0    0    0    0.0000    0.0000    0.0000    0.0000;
    161    0    0    70.55    -15.38    1.04    166.32    0    138.6    41.58    0    0    0    0    0    0    0    0    0    0    0    0.0000    0.0000    0.0000    0.0000;
    164    0    0    6.11    -1.33    1.04    14.4    0    12    3.6    0    0    0    0    0    0    0    0    0    0    0    0.0000    0.0000    0.0000    0.0000;
    165    0    0    13.23    -2.89    1.04    31.2    0    26    7.8    0    0    0    0    0    0    0    0    0    0    0    0.0000    0.0000    0.0000    0.0000;
    166    0    0    4.78    -1.04    1.04    11.28    0    9.4    2.82    0    0    0    0    0    0    0    0    0    0    0    0.0000    0.0000    0.0000    0.0000;
    167    2.82    11.6090657    4.78    -1.04    1.04    11.28    1    9.4    2.82    0    0    0    0    0    0    0    0    0    0    0    0.0000    0.0000    0.0000    0.0000;
    168    0    0    4.78    -1.04    1.04    11.28    0    9.4    2.82    0    0    0    0    0    0    0    0    0    0    0    0.0000    0.0000    0.0000    0.0000;
    169    0    0    4.78    -1.04    1.04    11.28    0    9.4    2.82    0    0    0    0    0    0    0    0    0    0    0    0.0000    0.0000    0.0000    0.0000;
    170    2.82    6.04960192    4.78    -1.04    1.04    11.28    1    9.4    2.82    0    0    0    0    0    0    0    0    0    0    0    0.0000    0.0000    0.0000    0.0000;
    182    17.5    7.94097388    8.16    -2.14    1.04    21    1    17.5    5.25    0    0    0    0    0    0    0    0    0    0    0    0.0000    0.0000    0.0000    0.0000;
    183    26.6    20.5719856    12.4    -3.25    1.04    31.92    1    26.6    7.98    0    0    0    0    0    0    0    0    0    0    0    0.0000    0.0000    0.0000    0.0000;
    189    569.100626    48.4620747    209.45    -46.67    1.04    682.98    1    569.15    170.75    0    0    0    0    0    0    0    0    0    0    0    0.0000    0.0000    0.0000    0.0000;
    196    0    0    34.36    -7.49    1.04    81    0    67.5    20.25    0    0    0    0    0    0    0    0    0    0    0    0.0000    0.0000    0.0000    0.0000;
    197    0    0    34.36    -7.49    1.04    81    0    67.5    20.25    0    0    0    0    0    0    0    0    0    0    0    0.0000    0.0000    0.0000    0.0000;
];

%% branch data
%    fbus    tbus    r    x    b    rateA    rateB    rateC    ratio    angle    status    angmin    angmax    Pf    Qf    Pt    Qt    mu_Sf    mu_St    mu_angmin    mu_angmax
mpc.branch = [
    2    1    0.000673    0.003339    0    100    0    0    0    0    1    0    0    -10.9500    -3.1200    10.9509    3.1243    0.0000    0.0000    0.0000    0.0000;
    1    119    0.018542    0.119758    0.02285    221.1    0    0    0    0    1    0    0    35.0075    1.4110    -34.7787    -2.1955    0.0000    0.0000    0.0000    0.0000;
    124    1    0.005615    0.036268    0.00692    221.1    0    0    0    0    1    0    0    75.0722    15.3056    -74.7477    -13.9072    0.0000    0.0000    0.0000    0.0000;
    193    1    0.004258    0.027501    0.00525    221.1    0    0    0    0    1    0    0    -28.7501    -9.6403    28.7894    9.3719    0.0000    0.0000    0.0000    0.0000;
    4    3    0.000573    0.003303    0    100    0    0    0    0    1    0    0    -2.7200    -0.7700    2.7200    0.7703    0.0000    0.0000    0.0000    0.0000;
    57    3    0.008505    0.058098    0.00988    221.1    0    0    0    0    1    0    0    -24.1979    -4.1627    24.2481    3.4969    0.0000    0.0000    0.0000    0.0000;
    3    137    0.005889    0.038035    0.00726    221.1    0    0    0    0    1    0    0    -26.9681    -4.2672    27.0108    3.7965    0.0000    0.0000    0.0000    0.0000;
    6    5    0.000694    0.003337    0    100    0    0    0    0    1    0    0    -12.5000    -3.5600    12.5011    3.5653    0.0000    0.0000    0.0000    0.0000;
    48    5    0.006246    0.043513    0.00711    221.1    0    0    0    0    1    0    0    -12.8979    -2.7402    12.9081    2.0626    0.0000    0.0000    0.0000    0.0000;
    5    64    0.007877    0.054875    0.00897    221.1    0    0    0    0    1    0    0    -25.4092    -5.6280    25.4594    5.0270    0.0000    0.0000    0.0000    0.0000;
    8    7    0.000634    0.003189    0    100    0    0    0    0    1    0    0    -35.2000    -10.0300    35.2087    10.0736    0.0000    0.0000    0.0000    0.0000;
    7    86    0.003756    0.024259    0.00463    221.1    0    0    0    0    1    0    0    -22.1231    -4.7279    22.1426    4.3993    0.0000    0.0000    0.0000    0.0000;
    7    101    0.003597    0.023232    0.00443    221.1    0    0    0    0    1    0    0    -32.0663    -9.9973    32.1075    9.8279    0.0000    0.0000    0.0000    0.0000;
    7    148    0.008667    0.05598    0.01068    221.1    0    0    0    0    1    0    0    18.9807    4.6515    -18.9465    -5.4725    0.0000    0.0000    0.0000    0.0000;
    10    9    0.000585    0.003967    0    100    0    0    0    0    1    0    0    -63.2900    -18.0400    63.3157    18.2141    0.0000    0.0000    0.0000    0.0000;
    9    124    0.008069    0.055123    0.00938    221.1    0    0    0    0    1    0    0    -66.8283    -15.2949    67.2107    16.9656    0.0000    0.0000    0.0000    0.0000;
    131    9    0.004139    0.026732    0.0051    221.1    0    0    0    0    1    0    0    -2.0690    0.7692    2.0692    -1.2722    0.0000    0.0000    0.0000    0.0000;
    9    141    0.004446    0.03097    0.00506    221.1    0    0    0    0    1    0    0    9.0798    1.2361    -9.0760    -1.7096    0.0000    0.0000    0.0000    0.0000;
    9    193    0.003695    0.025244    0.00429    221.1    0    0    0    0    1    0    0    -7.6363    -2.8831    7.6387    2.4751    0.0000    0.0000    0.0000    0.0000;
    12    11    0.000534    0.003533    0    100    0    0    0    0    1    0    0    -0.4900    -0.1400    0.4900    0.1400    0.0000    0.0000    0.0000    0.0000;
    13    11    0.000619    0.003606    0    100    0    0    0    0    1    0    0    -4.0400    -1.1500    4.0401    1.1506    0.0000    0.0000    0.0000    0.0000;
    11    15    0.010408    0.06722    0.01282    221.1    0    0    0    0    1    0    0    -3.5845    -1.3968    3.5858    0.0285    0.0000    0.0000    0.0000    0.0000;
    11    93    0.018394    0.128141    0.02095    221.1    0    0    0    0    1    0    0    12.0608    -2.1387    -12.0357    0.0674    0.0000    0.0000    0.0000    0.0000;
    158    11    0.008519    0.058199    0.0099    221.1    0    0    0    0    1    0    0    13.0204    -3.2108    -13.0064    2.2450    0.0000    0.0000    0.0000    0.0000;
    15    14    0.000637    0.027526    0    300    0    0    1    0    1    0    0    -75.3145    11.6068    75.3489    -10.1195    0.0000    0.0000    0.0000    0.0000;
    14    121    0.007013    0.050098    0.09134    402.36    0    0    0    0    1    0    0    -58.3428    6.0073    58.5737    -14.1194    0.0000    0.0000    0.0000    0.0000;
    14    149    0.009133    0.065244    0.11895    402.36    0    0    0    0    1    0    0    -17.0061    4.1122    17.0402    -16.5309    0.0000    0.0000    0.0000    0.0000;
    16    15    0.000553    0.0032    0    100    0    0    0    0    1    0    0    -71.7000    -20.4400    71.7287    20.6058    0.0000    0.0000    0.0000    0.0000;
    18    17    0.000503    0.003926    0    100    0    0    0    0    1    0    0    -1.1400    -0.3300    1.1400    0.3301    0.0000    0.0000    0.0000    0.0000;
    19    17    0.000514    0.003079    0    100    0    0    0    0    1    0    0    -1.2300    -0.3500    1.2300    0.3501    0.0000    0.0000    0.0000    0.0000;
    20    17    0.000623    0.003339    0    100    0    0    0    0    1    0    0    -1.8100    -0.5200    1.8100    0.5201    0.0000    0.0000    0.0000    0.0000;
    21    17    0.00062    0.00394    0    100    0    0    0    0    1    0    0    -7.3800    -2.1000    7.3804    2.1023    0.0000    0.0000    0.0000    0.0000;
    109    17    0.009789    0.068198    0.01115    221.1    0    0    0    0    1    0    0    23.2035    2.0355    -23.1509    -2.7952    0.0000    0.0000    0.0000    0.0000;
    17    120    0.010316    0.070473    0.01199    221.1    0    0    0    0    1    0    0    11.5905    -0.5073    -11.5767    -0.6036    0.0000    0.0000    0.0000    0.0000;
    23    22    0.000616    0.003222    0    100    0    0    0    0    1    0    0    -2.2600    -0.6400    2.2600    0.6402    0.0000    0.0000    0.0000    0.0000;
    24    22    0.000687    0.003067    0    100    0    0    0    0    1    0    0    -3.8400    -1.0900    3.8401    1.0905    0.0000    0.0000    0.0000    0.0000;
    22    27    0.011379    0.073494    0.01402    221.1    0    0    0    0    1    0    0    3.1458    -2.1606    -3.1445    0.6652    0.0000    0.0000    0.0000    0.0000;
    158    22    0.012701    0.086769    0.01476    221.1    0    0    0    0    1    0    0    9.2562    -1.9417    -9.2459    0.4300    0.0000    0.0000    0.0000    0.0000;
    26    25    0.00061    0.003071    0    100    0    0    0    0    1    0    0    -2.1300    -0.6100    2.1300    0.6101    0.0000    0.0000    0.0000    0.0000;
    25    64    0.007643    0.053244    0.0087    221.1    0    0    0    0    1    0    0    -35.0672    -1.0332    35.1560    0.7283    0.0000    0.0000    0.0000    0.0000;
    199    25    0.009909    0.064003    0.01221    221.1    0    0    0    0    1    0    0    -32.8355    -1.0542    32.9372    0.4230    0.0000    0.0000    0.0000    0.0000;
    28    27    0.000587    0.003964    0    100    0    0    0    0    1    0    0    -3.7400    -1.0700    3.7401    1.0706    0.0000    0.0000    0.0000    0.0000;
    27    93    0.025172    0.175362    0.02867    221.1    0    0    0    0    1    0    0    7.2237    -2.0415    -7.2114    -0.9470    0.0000    0.0000    0.0000    0.0000;
    27    158    0.020429    0.131945    0.02517    221.1    0    0    0    0    1    0    0    -7.8193    0.3057    7.8314    -2.9268    0.0000    0.0000    0.0000    0.0000;
    30    29    0.000694    0.003131    0    100    0    0    0    0    1    0    0    -87.6200    -24.9700    87.6778    25.2310    0.0000    0.0000    0.0000    0.0000;
    124    29    0.005561    0.038742    0.00633    221.1    0    0    0    0    1    0    0    58.6581    16.3234    -58.4550    -15.5461    0.0000    0.0000    0.0000    0.0000;
    29    140    0.007895    0.055004    0.00899    221.1    0    0    0    0    1    0    0    -29.2229    -9.6848    29.2971    9.2975    0.0000    0.0000    0.0000    0.0000;
    32    31    0.000667    0.003884    0    100    0    0    0    0    1    0    0    -0.7000    -0.2000    0.7000    0.2000    0.0000    0.0000    0.0000    0.0000;
    33    31    0.000528    0.003639    0    100    0    0    0    0    1    0    0    -8.8200    -2.5100    8.8204    2.5131    0.0000    0.0000    0.0000    0.0000;
    177    31    0.008406    0.05856    0.00957    221.1    0    0    0    0    1    0    0    11.1470    11.9610    -11.1239    -12.7668    0.0000    0.0000    0.0000    0.0000;
    192    31    0.008088    0.05525    0.0094    221.1    0    0    0    0    1    0    0    -1.5943    -10.9272    1.6035    10.0537    0.0000    0.0000    0.0000    0.0000;
    35    34    0.000575    0.003674    0    100    0    0    0    0    1    0    0    -33.2600    -9.4800    33.2666    9.5224    0.0000    0.0000    0.0000    0.0000;
    34    54    0.006268    0.042819    0.00729    221.1    0    0    0    0    1    0    0    -62.1943    -13.3347    62.4379    14.2343    0.0000    0.0000    0.0000    0.0000;
    34    137    0.006911    0.044639    0.00852    221.1    0    0    0    0    1    0    0    28.9277    3.8123    -28.8708    -4.3265    0.0000    0.0000    0.0000    0.0000;
    37    36    0.000552    0.003328    0    100    0    0    0    0    1    0    0    -4.8900    -1.3900    4.8901    1.3908    0.0000    0.0000    0.0000    0.0000;
    38    36    0.00067    0.003511    0    100    0    0    0    0    1    0    0    -40.8100    -11.6300    40.8219    11.6923    0.0000    0.0000    0.0000    0.0000;
    58    36    0.010889    0.07439    0.01266    221.1    0    0    0    0    1    0    0    6.6008    8.3094    -6.5877    -9.5149    0.0000    0.0000    0.0000    0.0000;
    83    36    0.009615    0.066986    0.01095    221.1    0    0    0    0    1    0    0    39.2701    3.4652    -39.1243    -3.5683    0.0000    0.0000    0.0000    0.0000;
    40    39    0.000505    0.003103    0    100    0    0    0    0    1    0    0    -3.2800    -0.9300    3.2801    0.9304    0.0000    0.0000    0.0000    0.0000;
    39    85    0.008702    0.060625    0.00991    221.1    0    0    0    0    1    0    0    -0.9507    0.5099    0.9508    -1.5024    0.0000    0.0000    0.0000    0.0000;
    159    39    0.007332    0.05108    0.00835    221.1    0    0    0    0    1    0    0    14.2055    4.0921    -14.1894    -4.8203    0.0000    0.0000    0.0000    0.0000;
    41    100    0.004595    0.029676    0.00566    221.1    0    0    0    0    1    0    0    -39.7638    -25.2747    39.8612    25.3102    0.0000    0.0000    0.0000    0.0000;
    41    163    0.003165    0.021623    0.00368    221.1    0    0    0    0    1    0    0    3.0639    8.5510    -3.0613    -8.9151    0.0000    0.0000    0.0000    0.0000;
    41    180    0.009408    0.060766    0.01159    221.1    0    0    0    0    1    0    0    -25.1702    -0.9063    25.2275    0.0683    0.0000    0.0000    0.0000    0.0000;
    44    42    0.012256    0.085383    0.01396    221.1    0    0    0    0    1    0    0    2.7948    -4.5125    -2.7922    3.1074    0.0000    0.0000    0.0000    0.0000;
    181    42    0.008008    0.05579    0.00912    221.1    0    0    0    0    1    0    0    14.2381    7.1606    -14.2178    -7.9574    0.0000    0.0000    0.0000    0.0000;
    43    84    0.007509    0.051295    0.00873    221.1    0    0    0    0    1    0    0    -2.5217    -6.2180    2.5247    5.3710    0.0000    0.0000    0.0000    0.0000;
    43    132    0.011052    0.075503    0.01285    221.1    0    0    0    0    1    0    0    -0.5683    5.3380    0.5724    -6.5779    0.0000    0.0000    0.0000    0.0000;
    44    200    0.014813    0.101195    0.01722    221.1    0    0    0    0    1    0    0    -9.4448    2.6225    9.4596    -4.2691    0.0000    0.0000    0.0000    0.0000;
    46    45    0.000936    0.049195    0    160    0    0    1    0    1    0    0    -33.0056    -4.1996    33.0154    4.7168    0.0000    0.0000    0.0000    0.0000;
    55    45    0.002593    0.018527    0.03378    402.36    0    0    0    0    1    0    0    -75.6837    -6.6493    75.8254    4.0980    0.0000    0.0000    0.0000    0.0000;
    102    45    0.0029    0.020715    0.03777    402.36    0    0    0    0    1    0    0    -39.5979    -2.8407    39.6410    -0.8425    0.0000    0.0000    0.0000    0.0000;
    45    187    0.003474    0.024821    0.04525    402.36    0    0    0    0    1    0    0    -148.4818    -7.9723    149.2067    8.3313    0.0000    0.0000    0.0000    0.0000;
    61    46    0.006971    0.048561    0.00794    221.1    0    0    0    0    1    0    0    -19.8772    -5.6563    19.9054    5.0196    0.0000    0.0000    0.0000    0.0000;
    122    46    0.010129    0.065419    0.01248    221.1    0    0    0    0    1    0    0    -4.4176    1.9906    4.4202    -3.2900    0.0000    0.0000    0.0000    0.0000;
    47    54    0.006678    0.045623    0.00776    221.1    0    0    0    0    1    0    0    21.1089    4.7116    -21.0794    -5.3337    0.0000    0.0000    0.0000    0.0000;
    47    66    0.007339    0.047401    0.00904    221.1    0    0    0    0    1    0    0    -23.5789    -5.4216    23.6189    4.7127    0.0000    0.0000    0.0000    0.0000;
    49    48    0.027149    0.532021    0    28.9    0    0    1    0    1    0    0    4.5300    2.6938    -4.5230    -2.5572    0.0000    0.0000    0.0000    0.0000;
    50    48    0.021719    0.404167    0    28.7    0    0    1    0    1    0    0    4.5300    3.5791    -4.5233    -3.4546    0.0000    0.0000    0.0000    0.0000;
    51    48    0.027149    0.612711    0    24.3    0    0    1    0    1    0    0    4.5300    2.3535    -4.5235    -2.2059    0.0000    0.0000    0.0000    0.0000;
    52    48    0.021719    0.379817    0    24.3    0    0    1    0    1    0    0    4.5300    3.8038    -4.5230    -3.6809    0.0000    0.0000    0.0000    0.0000;
    53    48    0.02121    0.576549    0    35.3    0    0    1    0    1    0    0    9.0700    2.5390    -9.0526    -2.0661    0.0000    0.0000    0.0000    0.0000;
    48    74    0.007959    0.054369    0.00925    221.1    0    0    0    0    1    0    0    37.1733    15.8849    -37.0484    -15.9932    0.0000    0.0000    0.0000    0.0000;
    54    66    0.007051    0.045544    0.00869    221.1    0    0    0    0    1    0    0    -45.6285    -10.1206    45.7734    10.1304    0.0000    0.0000    0.0000    0.0000;
    56    55    0.005152    0.124653    0    160    0    0    1    0    1    0    0    -5.5410    -1.0878    5.5425    1.1257    0.0000    0.0000    0.0000    0.0000;
    81    55    0.005467    0.039054    0.0712    402.36    0    0    0    0    1    0    0    -84.5868    -1.2062    84.9618    -3.5758    0.0000    0.0000    0.0000    0.0000;
    55    102    0.001246    0.008902    0.01623    402.36    0    0    0    0    1    0    0    -65.5001    -9.5201    65.5518    8.1792    0.0000    0.0000    0.0000    0.0000;
    55    112    0.004166    0.029763    0.05426    402.36    0    0    0    0    1    0    0    24.1573    6.4254    -24.1308    -11.9246    0.0000    0.0000    0.0000    0.0000;
    55    128    0.003415    0.024395    0.04448    402.36    0    0    0    0    1    0    0    26.5220    12.1941    -26.4924    -16.6422    0.0000    0.0000    0.0000    0.0000;
    56    103    0.004282    0.02983    0.00488    221.1    0    0    0    0    1    0    0    3.7510    0.5778    -3.7504    -1.0852    0.0000    0.0000    0.0000    0.0000;
    57    159    0.00752    0.051369    0.00874    221.1    0    0    0    0    1    0    0    19.6779    2.8727    -19.6485    -3.5567    0.0000    0.0000    0.0000    0.0000;
    95    58    0.009836    0.063526    0.01212    221.1    0    0    0    0    1    0    0    9.3273    14.8988    -9.2966    -15.9621    0.0000    0.0000    0.0000    0.0000;
    177    58    0.014049    0.095972    0.01633    221.1    0    0    0    0    1    0    0    3.1019    -7.6226    -3.0942    6.0027    0.0000    0.0000    0.0000    0.0000;
    59    119    0.011209    0.072397    0.01381    221.1    0    0    0    0    1    0    0    -8.7376    3.9378    8.7487    -5.2245    0.0000    0.0000    0.0000    0.0000;
    59    139    0.009665    0.062426    0.01191    221.1    0    0    0    0    1    0    0    1.7176    -5.9378    -1.7145    4.7797    0.0000    0.0000    0.0000    0.0000;
    60    97    0.012274    0.079279    0.01512    221.1    0    0    0    0    1    0    0    35.5284    1.3812    -35.3774    -1.9539    0.0000    0.0000    0.0000    0.0000;
    134    60    0.009007    0.062749    0.01026    221.1    0    0    0    0    1    0    0    41.3071    2.9552    -41.1584    -2.9812    0.0000    0.0000    0.0000    0.0000;
    61    103    0.006539    0.045556    0.00745    221.1    0    0    0    0    1    0    0    -8.2628    -2.3637    8.2673    1.6155    0.0000    0.0000    0.0000    0.0000;
    159    62    0.008634    0.058979    0.01003    221.1    0    0    0    0    1    0    0    3.2229    -1.1654    -3.2220    0.1587    0.0000    0.0000    0.0000    0.0000;
    160    62    0.007628    0.053144    0.00869    221.1    0    0    0    0    1    0    0    31.1477    9.5995    -31.0680    -9.9287    0.0000    0.0000    0.0000    0.0000;
    63    66    0.011949    0.083244    0.01361    221.1    0    0    0    0    1    0    0    -57.6529    -0.0145    58.0280    1.1760    0.0000    0.0000    0.0000    0.0000;
    63    184    0.017963    0.116023    0.02214    221.1    0    0    0    0    1    0    0    44.8629    -3.6255    -44.5205    3.5009    0.0000    0.0000    0.0000    0.0000;
    65    64    0.00128    0.10157    0    195.5    0    0    1    0    1    0    0    60.6600    9.2918    -60.6154    -5.7553    0.0000    0.0000    0.0000    0.0000;
    67    66    0.020951    0.144786    0    30    0    0    1    0    1    0    0    4.7000    1.9986    -4.6949    -1.9637    0.0000    0.0000    0.0000    0.0000;
    68    66    0.00689    0.264997    0    73    0    0    1    0    1    0    0    27.9200    1.6870    -27.8702    0.2299    0.0000    0.0000    0.0000    0.0000;
    69    66    0.00441    0.09499    0    70.5    0    0    1    0    1    0    0    27.9200    3.1069    -27.8878    -2.4138    0.0000    0.0000    0.0000    0.0000;
    70    66    0.00689    0.199449    0    70.5    0    0    1    0    1    0    0    27.9200    1.6893    -27.8702    -0.2466    0.0000    0.0000    0.0000    0.0000;
    71    66    0.003528    0.081544    0    68    0    0    1    0    1    0    0    27.9200    3.8165    -27.8941    -3.2178    0.0000    0.0000    0.0000    0.0000;
    72    66    0.003528    0.074599    0    68    0    0    1    0    1    0    0    27.9200    4.1193    -27.8940    -3.5699    0.0000    0.0000    0.0000    0.0000;
    73    66    0.00689    0.146423    0    65    0    0    1    0    1    0    0    27.9200    1.8485    -27.8701    -0.7886    0.0000    0.0000    0.0000    0.0000;
    66    158    0.004993    0.032251    0.00615    221.1    0    0    0    0    1    0    0    44.5610    -4.0487    -44.4681    3.9893    0.0000    0.0000    0.0000    0.0000;
    74    190    0.008894    0.06076    0.01034    221.1    0    0    0    0    1    0    0    7.5384    7.5832    -7.5277    -8.5678    0.0000    0.0000    0.0000    0.0000;
    76    75    0.038464    0.784328    0    24.3    0    0    1    0    1    0    0    1.2000    3.1397    -1.1960    -3.0578    0.0000    0.0000    0.0000    0.0000;
    77    75    0.08013    2.192105    0    7.4    0    0    1    0    1    0    0    0.7200    1.1214    -0.7187    -1.0855    0.0000    0.0000    0.0000    0.0000;
    78    75    0.008544    0.181406    0    65    0    0    1    0    1    0    0    0.0000    0.0000    0.0000    0.0000    0.0000    0.0000    0.0000    0.0000;
    79    75    0.01068    0.277774    0    62.1    0    0    1    0    1    0    0    0.0000    0.0000    0.0000    0.0000    0.0000    0.0000    0.0000    0.0000;
    108    75    0.010988    0.070969    0.01354    221.1    0    0    0    0    1    0    0    -20.3392    -4.8502    20.3856    3.7594    0.0000    0.0000    0.0000    0.0000;
    75    157    0.013487    0.087112    0.01662    221.1    0    0    0    0    1    0    0    -23.8109    -1.1362    23.8850    -0.1066    0.0000    0.0000    0.0000    0.0000;
    80    100    0.021463    0.149525    0.02444    221.1    0    0    0    0    1    0    0    8.0772    -7.8545    -8.0548    5.4433    0.0000    0.0000    0.0000    0.0000;
    80    143    0.020594    0.14347    0.02345    221.1    0    0    0    0    1    0    0    -10.4572    7.1745    10.4927    -9.3479    0.0000    0.0000    0.0000    0.0000;
    82    81    0.00097    0.042371    0    250    0    0    1    0    1    0    0    -55.3099    -9.2276    55.3394    10.5157    0.0000    0.0000    0.0000    0.0000;
    81    178    0.006598    0.047137    0.08594    402.36    0    0    0    0    1    0    0    29.2474    -9.3095    -29.1918    0.7322    0.0000    0.0000    0.0000    0.0000;
    82    195    0.003845    0.026265    0.00447    221.1    0    0    0    0    1    0    0    43.3499    5.8176    -43.2787    -5.7921    0.0000    0.0000    0.0000    0.0000;
    83    146    0.005382    0.036767    0.00626    221.1    0    0    0    0    1    0    0    -12.1319    -11.8924    12.1466    11.3465    0.0000    0.0000    0.0000    0.0000;
    83    186    0.00792    0.055174    0.00902    221.1    0    0    0    0    1    0    0    -31.4282    7.2072    31.5089    -7.5710    0.0000    0.0000    0.0000    0.0000;
    84    113    0.006652    0.04544    0.00773    221.1    0    0    0    0    1    0    0    -8.0847    -6.9610    8.0919    6.2371    0.0000    0.0000    0.0000    0.0000;
    85    120    0.007786    0.050291    0.00959    221.1    0    0    0    0    1    0    0    -8.6908    -0.7076    8.6967    -0.2164    0.0000    0.0000    0.0000    0.0000;
    86    101    0.00512    0.033072    0.00631    221.1    0    0    0    0    1    0    0    -6.2912    -3.9197    6.2939    3.3155    0.0000    0.0000    0.0000    0.0000;
    142    86    0.003387    0.023141    0.00394    221.1    0    0    0    0    1    0    0    10.3536    -1.9648    -10.3498    1.6031    0.0000    0.0000    0.0000    0.0000;
    86    193    0.006606    0.042664    0.00814    221.1    0    0    0    0    1    0    0    -17.7316    -5.5726    17.7545    4.9167    0.0000    0.0000    0.0000    0.0000;
    88    87    0.000832    0.034189    0    350    0    0    1    0    1    0    0    -113.2248    -11.0795    113.3283    15.3292    0.0000    0.0000    0.0000    0.0000;
    149    87    0.001621    0.011579    0.02111    402.36    0    0    0    0    1    0    0    113.5292    14.5363    -113.3283    -15.3292    0.0000    0.0000    0.0000    0.0000;
...